6
  c2n4
C        0.7250000000      0.0000000000      0.0000000000                 
C       -0.7250000000      0.0000000000      0.0000000000                 
N        1.0500000000      1.2800000000      0.0000000000                 
N       -1.0500000000     -1.2800000000      0.0000000000                 
N       -1.0500000000      1.2800000000      0.0000000000                 
N        1.0500000000     -1.2800000000      0.0000000000   
