14
 from psi4 optimization
C  0.022400   0.001000   0.000000
C  1.539300   0.001000   0.000000
N -0.699600  -1.193000   0.000000
N -2.048600  -1.461000   0.000000
B -1.092400  -2.704000   0.000000
N -0.699600   1.193000   0.000000
N -2.048600   1.461000   0.000000
B -1.092400   2.704000   0.000000
N  2.261400  -1.193000   0.000000
N  3.610400  -1.461000   0.000000
B  2.654200  -2.704000   0.000000
N  2.261400   1.193000   0.000000
N  3.610400   1.461000   0.000000
B  2.654200   2.704000   0.000000
