6
  c2n4
C        0.6800000000      0.0000000000      0.0000000000                 
C       -0.6800000000      0.0000000000      0.0000000000                 
N        1.1000000000      1.2500000000      0.0000000000                 
N       -1.1000000000     -1.2500000000      0.0000000000                 
N       -1.1000000000      1.2500000000      0.0000000000                 
N        1.1000000000     -1.2500000000      0.0000000000   
