6
  c2n4
C        0.8000000000      0.0000000000      0.0000000000                 
C       -0.8000000000      0.0000000000      0.0000000000                 
N        1.0000000000      1.3500000000      0.0000000000                 
N       -1.0000000000     -1.3500000000      0.0000000000                 
N       -1.0000000000      1.3500000000      0.0000000000                 
N        1.0000000000     -1.3500000000      0.0000000000   
