6
  c2n4
C        0.7500000000      0.0000000000      0.0000000000                 
C       -0.7500000000      0.0000000000      0.0000000000                 
N        0.9800000000      1.2800000000      0.0000000000                 
N       -0.9800000000     -1.2800000000      0.0000000000                 
N       -0.9800000000      1.2800000000      0.0000000000                 
N        0.9800000000     -1.2800000000      0.0000000000   
