8
  c2b2n4
C        0.8000000000      0.0000000000      0.0000000000                 
C       -0.8000000000      0.0000000000      0.0000000000                 
N        1.0000000000      1.2500000000      0.0000000000                 
N       -1.0000000000     -1.2500000000      0.0000000000                 
N       -1.0000000000      1.2500000000      0.0000000000                 
N        1.0000000000     -1.2500000000      0.0000000000   
B        1.8000000000     -0.6000000000      0.0000000000                 
B       -1.8000000000      0.6000000000      0.0000000000                 
